%nprocs=8 
%mem=16GB 
%chk=/home/mateus/github/db_singletoxygen/chk/moleculeA_9.chk 
#opt freq blyp/6-31g(d,p) 

moleculeA_9 Cc1cc(=O)oc2c1cc(C)c1scc(C)c21	


0 1
C          1.06082       -0.09856        0.05481
C          2.56235       -0.09654        0.05508
C          3.28470       -1.22211        0.05498
C          4.75400       -1.22498        0.05589
O          5.37069       -2.28823        0.05530
O          5.38874        0.01204        0.05788
C          4.66501        1.24381        0.05744
C          3.26476        1.18849        0.05564
C          2.54373        2.37569        0.05477
C          3.16117        3.62388        0.05455
C          2.29944        4.85255        0.05324
C          4.57087        3.65688        0.05601
S          5.52971        5.08661        0.05515
C          6.96913        4.20264        0.05915
C          6.77169        2.83605        0.06294
C          7.90395        1.86465        0.07144
C          5.35706        2.49373        0.05848
H          0.64443       -1.10802        0.05481
H          0.67837        0.41524       -0.83578
H          0.67823        0.41523        0.94536
H          2.81266       -2.19808        0.05442
H          1.45748        2.36281        0.05410
H          1.23533        4.59336        0.05256
H          2.49928        5.44546       -0.84330
H          2.49787        5.44629        0.94955
H          7.90663        4.73973        0.05983
H          8.86483        2.39299        0.07538
H          7.87598        1.23100       -0.81932
H          7.86626        1.23639        0.96575

