%nprocs=8 
%mem=16GB 
%chk=/home/mateus/github/db_singletoxygen/chk/moleculeA_15.chk 
#opt freq blyp/6-31g(d,p) 

moleculeA_15 Cc1oc2c(C)cc3c(C)cc(=O)oc3c2c1C	


0 1
C          1.16302        0.05980       -0.01943
C          2.63668       -0.07936       -0.01958
O          3.38085        1.06212       -0.02004
C          4.69382        0.68595       -0.01980
C          5.79554        1.54317       -0.02016
C          5.72085        3.03642       -0.02124
C          7.05938        0.91893       -0.01910
C          7.22963       -0.47169       -0.01732
C          8.54968       -1.12123       -0.01398
C          9.82210       -0.32642       -0.00334
C          8.60800       -2.46255       -0.01806
C          7.42175       -3.32561       -0.02061
O          7.52792       -4.54858       -0.02140
O          6.19989       -2.68590       -0.01981
C          6.08194       -1.27552       -0.01881
C          4.79483       -0.69991       -0.01933
C          3.45696       -1.19287       -0.01925
C          3.01840       -2.60650       -0.01839
H          0.83737        1.10369       -0.01974
H          0.74204       -0.42951        0.86532
H          0.74187       -0.43010       -0.90378
H          4.68644        3.38638       -0.02156
H          6.22230        3.43144       -0.91135
H          6.22210        3.43268        0.86844
H          7.91624        1.58572       -0.02017
H          9.68202        0.75407        0.00148
H         10.41755       -0.55436       -0.89305
H         10.40638       -0.56236        0.89181
H          9.55284       -2.99510       -0.01719
H          3.86330       -3.29691       -0.01812
H          2.41949       -2.81635       -0.90918
H          2.41982       -2.81535        0.87286

