%nprocs=8 
%mem=16GB 
%chk=/home/mateus/github/db_singletoxygen/chk/molecule_44.chk 
#opt freq blyp/6-31g(d,p) 

molecule_44 CN(C)c1cc2c(cc1)nc1-c(cc(=O)cc1)s2	


0 1
C          0.96192        0.02262        0.06889
N          2.40650       -0.02406        0.08882
C          3.15614       -0.39237       -1.10469
C          3.07772        0.36696        1.22803
C          4.19569        1.17026        1.11816
C          4.93283        1.56293        2.22835
C          4.58606        1.16370        3.51924
C          3.44515        0.36651        3.65164
C          2.69772       -0.01211        2.51957
N          5.32124        1.52046        4.67063
C          6.38235        2.26585        4.56301
C          7.12434        2.61067        5.81252
C          8.22434        3.37468        5.79641
C          8.77432        3.92264        4.54871
O          9.78173        4.62458        4.52901
C          8.07790        3.60364        3.31698
C          6.98187        2.84580        3.31837
S          6.29019        2.57580        1.79228
H          0.56684       -0.30008       -0.89777
H          0.60842        1.04458        0.24984
H          0.54218       -0.63755        0.83184
H          2.49358       -0.70384       -1.91628
H          3.81724       -1.23645       -0.87557
H          3.77050        0.42673       -1.49662
H          4.50063        1.54050        0.14323
H          3.12908        0.01798        4.63256
H          1.83466       -0.65593        2.65980
H          6.73120        2.21354        6.74240
H          8.76937        3.63231        6.69423
H          8.48942        4.01118        2.39982

