%nprocs=8 
%mem=16GB 
%chk=/home/mateus/github/db_singletoxygen/chk/molecule_16.chk 
#opt freq blyp/6-31g(d,p) 

molecule_16 Cc1cc2c(cc1)oc(=O)cc2	


0 1
C         -4.09691       -0.43009       -0.00587
C         -2.63740       -0.07875       -0.00073
C         -1.65359       -1.08311       -0.00725
C         -0.29716       -0.74382       -0.00192
C          0.05633        0.60328        0.00294
C         -0.89952        1.61308        0.01564
C         -2.24910        1.26960        0.01510
O          1.40422        1.00687       -0.00262
C          2.42915        0.07430       -0.00051
O          3.60982        0.39987       -0.00557
C          2.03797       -1.34702        0.01268
C          0.76070       -1.74286        0.00976
H         -4.24773       -1.51420       -0.02401
H         -4.58365       -0.00867       -0.89145
H         -4.58242       -0.03778        0.89351
H         -1.95537       -2.12845       -0.01421
H         -0.59193        2.65422        0.02883
H         -2.99732        2.05942        0.02745
H          2.85704       -2.05545        0.02716
H          0.49996       -2.79531        0.02475

