%nprocs=8 
%mem=16GB 
%chk=/home/mateus/github/db_singletoxygen/chk/molecule_9.chk 
#opt freq blyp/6-31g(d,p) 

molecule_9 Cc1cc(=O)oc2c1cc(C)c1scc(C)c21	


0 1
C          1.06684       -0.07865       -0.04205
C          2.56837       -0.07663       -0.04178
C          3.29073       -1.20220       -0.04188
C          4.76002       -1.20507       -0.04097
O          5.37671       -2.26832       -0.04157
O          5.39476        0.03195       -0.03898
C          4.67104        1.26372       -0.03942
C          3.27078        1.20840       -0.04122
C          2.54975        2.39560       -0.04209
C          3.16719        3.64379       -0.04232
C          2.30546        4.87246       -0.04363
C          4.57689        3.67679       -0.04085
S          5.53573        5.10652       -0.04171
C          6.97516        4.22255       -0.03772
C          6.77771        2.85596       -0.03393
C          7.90997        1.88456       -0.02542
C          5.36309        2.51364       -0.03839
H          0.65045       -1.08812       -0.04205
H          0.68439        0.43515       -0.93265
H          0.68425        0.43514        0.84850
H          2.81869       -2.17817       -0.04244
H          1.46350        2.38272       -0.04276
H          1.24135        4.61327       -0.04431
H          2.50530        5.46537       -0.94016
H          2.50389        5.46620        0.85269
H          7.91265        4.75964       -0.03704
H          8.87086        2.41289       -0.02148
H          7.88200        1.25091       -0.91618
H          7.87228        1.25630        0.86888

