%nprocs=8 
%mem=16GB 
%chk=/home/mateus/github/db_singletoxygen/chk/molecule_34.chk 
#opt freq blyp/6-31g(d,p) 

molecule_34 Cc1cc2c(cc1)nc1c(n2)[nH]c(=O)[nH]c1=O	


0 1
C          0.95896       -0.04516       -0.08441
C          2.45798       -0.03675       -0.08535
C          3.19358       -1.23270       -0.08858
C          4.58553       -1.23792       -0.09314
C          5.25894        0.01432       -0.09609
C          4.53091        1.19293       -0.09250
C          3.13925        1.17957       -0.08517
N          6.59534        0.09563       -0.10154
C          7.25544       -1.08460       -0.10308
C          6.61896       -2.31538       -0.09992
N          5.27152       -2.41002       -0.09512
N          7.36468       -3.49127       -0.10191
C          8.72694       -3.50907       -0.10754
O          9.36500       -4.55565       -0.11025
N          9.34919       -2.29229       -0.11010
C          8.73106       -1.06405       -0.10806
O          9.38062       -0.02335       -0.11026
H          0.56426       -1.06561       -0.08673
H          0.58175        0.46618       -0.97603
H          0.58186        0.46286        0.80904
H          2.67133       -2.18744       -0.08776
H          5.06008        2.14361       -0.09557
H          2.59564        2.12247       -0.08018
H          6.87336       -4.37468       -0.09960
H         10.35885       -2.29031       -0.11392

