%nprocs=8 
%mem=16GB 
%chk=/home/mateus/github/db_singletoxygen/chk/moleculeA_5.chk 
#opt freq blyp/6-31g(d,p) 

moleculeA_5 Cc1oc2ccc3ccc(=O)oc3c2c1C	


0 1
C          1.06980        0.04105        0.09704
C          2.54547       -0.08896        0.09727
O          3.27589        1.05642        0.09731
C          4.58740        0.69193        0.09806
C          5.65901        1.58410        0.09934
C          6.94247        1.03454        0.10058
C          7.13477       -0.34762        0.09985
C          8.48659       -0.88058        0.10153
C          8.68388       -2.19965        0.10102
C          7.56687       -3.15620        0.09901
O          7.78799       -4.36439        0.09877
O          6.27834       -2.62588        0.09781
C          6.03393       -1.22106        0.09829
C          4.71840       -0.69652        0.09784
C          3.37570       -1.19810        0.09787
C          2.89753       -2.59947        0.09889
H          0.73851        1.08336        0.09576
H          0.65114       -0.44930        0.98231
H          0.65125       -0.45140       -0.78711
H          5.50233        2.65579        0.10001
H          7.79992        1.70396        0.10246
H          9.32260       -0.18951        0.10362
H          9.68325       -2.61883        0.10248
H          3.72011       -3.31529        0.10014
H          2.27978       -2.78361       -0.78714
H          2.27875       -2.78198        0.98458

