%nprocs=8 
%mem=16GB 
%chk=/home/mateus/github/db_singletoxygen/chk/molecule_15.chk 
#opt freq blyp/6-31g(d,p) 

molecule_15 Cc1oc2c(C)cc3c(C)cc(=O)oc3c2c1C	


0 1
C          1.06812        0.08128        0.07811
C          2.54179       -0.05788        0.07797
O          3.28595        1.08361        0.07751
C          4.59892        0.70744        0.07775
C          5.70065        1.56465        0.07739
C          5.62596        3.05791        0.07631
C          6.96448        0.94041        0.07845
C          7.13473       -0.45021        0.08023
C          8.45479       -1.09975        0.08357
C          9.72721       -0.30493        0.09421
C          8.51310       -2.44106        0.07948
C          7.32686       -3.30412        0.07694
O          7.43303       -4.52709        0.07615
O          6.10500       -2.66441        0.07774
C          5.98705       -1.25403        0.07873
C          4.69993       -0.67843        0.07822
C          3.36207       -1.17138        0.07830
C          2.92351       -2.58502        0.07916
H          0.74247        1.12517        0.07781
H          0.64715       -0.40803        0.96287
H          0.64698       -0.40862       -0.80623
H          4.59154        3.40787        0.07599
H          6.12740        3.45293       -0.81380
H          6.12721        3.45416        0.96599
H          7.82135        1.60721        0.07738
H          9.58712        0.77556        0.09903
H         10.32266       -0.53288       -0.79550
H         10.31149       -0.54087        0.98936
H          9.45795       -2.97361        0.08036
H          3.76840       -3.27543        0.07943
H          2.32460       -2.79486       -0.81163
H          2.32492       -2.79387        0.97041

