%nprocs=8 
%mem=16GB 
%chk=/home/mateus/github/db_singletoxygen/chk/molecule_2.chk 
#opt freq blyp/6-31g(d,p) 

molecule_2 Cc1cc2c(c3c(cc2)occ3C)oc1=O	


0 1
C          1.02067        0.11377        0.06101
C          2.51682        0.06573        0.06090
C          3.16168       -1.10458        0.06199
C          4.60801       -1.16210        0.06173
C          5.36061        0.02203        0.06100
C          6.77397       -0.05309        0.06169
C          7.33823       -1.32880        0.06215
C          6.61690       -2.51917        0.06267
C          5.22989       -2.41097        0.06277
O          8.69300       -1.26194        0.06245
C          9.02146        0.04935        0.06280
C          7.89230        0.84681        0.06270
C          7.89064        2.32737        0.06395
O          4.66488        1.26623        0.06010
C          3.26697        1.34647        0.05993
O          2.68134        2.42677        0.05930
H          0.58948       -0.89586        0.06164
H          0.64637        0.62306       -0.83170
H          0.64658        0.62413        0.95318
H          2.61663       -2.04313        0.06331
H          7.11327       -3.48123        0.06356
H          4.63276       -3.31993        0.06394
H         10.08307        0.25795        0.06337
H          8.91595        2.71723        0.06436
H          7.38774        2.71105        0.95579
H          7.38772        2.71257       -0.82718

