%nprocs=8 
%mem=16GB 
%chk=/home/mateus/github/db_singletoxygen/chk/molecule_5.chk 
#opt freq blyp/6-31g(d,p) 

molecule_5 Cc1oc2ccc3ccc(=O)oc3c2c1C	


0 1
C          1.11729        0.01823       -0.07472
C          2.59296       -0.11177       -0.07449
O          3.32338        1.03361       -0.07444
C          4.63488        0.66911       -0.07370
C          5.70650        1.56128       -0.07241
C          6.98996        1.01172       -0.07118
C          7.18226       -0.37043       -0.07190
C          8.53407       -0.90340       -0.07023
C          8.73137       -2.22247       -0.07074
C          7.61436       -3.17902       -0.07274
O          7.83548       -4.38720       -0.07299
O          6.32583       -2.64869       -0.07395
C          6.08142       -1.24387       -0.07347
C          4.76589       -0.71933       -0.07391
C          3.42319       -1.22092       -0.07389
C          2.94501       -2.62228       -0.07287
H          0.78600        1.06055       -0.07600
H          0.69863       -0.47212        0.81055
H          0.69874       -0.47422       -0.95887
H          5.54981        2.63298       -0.07174
H          7.84741        1.68115       -0.06930
H          9.37009       -0.21233       -0.06814
H          9.73074       -2.64165       -0.06928
H          3.76760       -3.33811       -0.07161
H          2.32727       -2.80643       -0.95890
H          2.32624       -2.80480        0.81282

