%nprocs=8 
%mem=16GB 
%chk=/home/mateus/github/db_singletoxygen/chk/molecule_35.chk 
#opt freq blyp/6-31g(d,p) 

molecule_35 Cc1cccc2nc3c(=O)[nH]c(=O)[nH]c3nc12	


0 1
C          0.99461        0.05647        0.05728
C          2.49894        0.05405        0.05759
C          3.18124        1.28247        0.05881
C          4.56864        1.31690        0.06044
C          5.28036        0.12296        0.05788
C          4.63049       -1.10114        0.05708
N          5.38575       -2.20814        0.05673
C          4.71303       -3.38062        0.05775
C          5.48522       -4.63925        0.05824
O          6.71160       -4.66682        0.05844
N          4.74471       -5.79865        0.05848
C          3.38073       -5.88515        0.05875
O          2.80585       -6.96775        0.05838
N          2.70107       -4.70481        0.05937
C          3.33159       -3.46387        0.05856
N          2.56067       -2.35568        0.05830
C          3.20648       -1.15706        0.05761
H          0.59946        1.07839        0.05720
H          0.61301       -0.44458        0.95230
H          0.61312       -0.44470       -0.83772
H          2.62909        2.22026        0.05862
H          5.09666        2.26725        0.06374
H          6.36842        0.14635        0.05691
H          5.26145       -6.66611        0.05836
H          1.69069       -4.73192        0.05985

