%nprocs=8 
%mem=16GB 
%chk=/home/mateus/github/db_singletoxygen/chk/molecule_13.chk 
#opt freq blyp/6-31g(d,p) 

molecule_13 Cc1oc2c(C)cc3ccc(=O)oc3c2c1C	


0 1
C          1.01345       -0.05243        0.05587
C          2.48911       -0.18389        0.05609
O          3.21877        0.96060        0.05612
C          4.53423        0.60141        0.05690
C          5.60916        1.49939        0.05823
C          5.47188        2.98721        0.05926
C          6.89089        0.93109        0.05940
C          7.07957       -0.44818        0.05868
C          8.43184       -0.97614        0.06036
C          8.62921       -2.29448        0.05986
C          7.51132       -3.24985        0.05785
O          7.73317       -4.45805        0.05760
O          6.22179       -2.72110        0.05666
C          5.97762       -1.31630        0.05714
C          4.66332       -0.78847        0.05668
C          3.32018       -1.29152        0.05671
C          2.84243       -2.69281        0.05773
H          0.68378        0.99053        0.05459
H          0.59380       -0.54163        0.94129
H          0.59390       -0.54374       -0.82844
H          4.42392        3.29516        0.05869
H          5.95655        3.40177       -0.83071
H          5.95509        3.40030        0.95071
H          7.75651        1.59185        0.06126
H          9.26633       -0.28295        0.06245
H          9.62902       -2.71186        0.06131
H          3.66512       -3.40838        0.05898
H          2.22459       -2.87666       -0.82831
H          2.22355       -2.87503        0.94343

