%nprocs=8 
%mem=16GB 
%chk=/home/mateus/github/db_singletoxygen/chk/molecule_11.chk 
#opt freq blyp/6-31g(d,p) 

molecule_11 Cc1cc2c3oc(=O)cc(C)c3cc(C)c2s1	


0 1
C          0.90551       -0.20070        0.08445
C          2.38792       -0.19891        0.08421
C          3.33015       -1.21005        0.08443
C          4.69020       -0.70774        0.08438
C          5.96636       -1.33993        0.08497
O          6.06107       -2.76253        0.08401
C          7.28308       -3.42244        0.08321
O          7.37692       -4.64927        0.08237
C          8.49209       -2.58889        0.08572
C          8.45557       -1.25071        0.08997
C          9.70608       -0.42047        0.10018
C          7.15019       -0.58009        0.08669
C          7.06451        0.81357        0.08533
C          5.83947        1.47618        0.08372
C          5.75690        2.97296        0.08262
C          4.67818        0.68773        0.08387
S          3.09665        1.33323        0.08346
H          0.49153       -1.20740        0.08510
H          0.53790        0.33562       -0.79990
H          0.53810        0.33663        0.96829
H          3.07663       -2.26454        0.08501
H          9.43098       -3.13194        0.08640
H         10.61080       -1.03436        0.10418
H          9.73746        0.21402        0.99375
H          9.74918        0.22053       -0.78809
H          7.95980        1.42898        0.08538
H          6.74187        3.44141        0.08233
H          5.21458        3.30833        0.97374
H          5.21468        3.30708       -0.80903

