%nprocs=8 
%mem=16GB 
%chk=/home/mateus/github/db_singletoxygen/chk/molecule_33.chk 
#opt freq blyp/6-31g(d,p) 

molecule_33 Cc1ccc2nc3[nH]c(=O)[nH]c(=O)c3nc2c1	


0 1
C          1.06630       -0.04871       -0.04725
C          2.56516       -0.02064       -0.04818
C          3.26100        1.18670       -0.04813
C          4.65821        1.19083       -0.05537
C          5.38664        0.00813       -0.05891
N          6.73960        0.04895       -0.06428
C          7.37296       -1.14237       -0.06586
N          8.76288       -1.13675       -0.07062
C          9.51212       -2.27218       -0.07322
O         10.73777       -2.24118       -0.07754
N          8.82343       -3.45241       -0.07073
C          7.45350       -3.59525       -0.06470
O          6.93044       -4.70447       -0.06124
C          6.67375       -2.33852       -0.06266
N          5.32168       -2.40529       -0.05792
C          4.67946       -1.22548       -0.05598
C          3.29125       -1.21717       -0.05141
H          0.65124        0.96445       -0.04536
H          0.69788       -0.56485        0.84487
H          0.69776       -0.56088       -0.94170
H          2.72402        2.13310       -0.04311
H          5.18573        2.14184       -0.05840
H          9.23762       -0.24470       -0.07240
H          9.36976       -4.30169       -0.07246
H          2.76640       -2.17141       -0.05059

