%nprocs=8 
%mem=16GB 
%chk=/home/mateus/github/db_singletoxygen/chk/molecule_30.chk 
#opt freq blyp/6-31g(d,p) 

molecule_30 Cc1cc2c(cc1C)nc1c(n2)c(=O)[nH]c(=O)[nH]1	


0 1
C          0.99714        0.02838        0.08386
C          2.49972        0.07326        0.08293
C          3.23417       -1.11922        0.07917
C          4.62092       -1.12336        0.07477
C          5.32448        0.11024        0.07179
C          4.59163        1.29215        0.07586
C          3.18695        1.29575        0.08442
C          2.43358        2.59677        0.09838
N          6.67845        0.15126        0.06658
C          7.31319       -1.03973        0.06521
C          6.61486       -2.23610        0.06849
N          5.26336       -2.30289        0.07309
C          7.39437       -3.49268        0.06648
O          6.87105       -4.60231        0.06994
N          8.76403       -3.35012        0.06045
C          9.45251       -2.16974        0.05795
O         10.67829       -2.13886        0.05362
N          8.70324       -1.03422        0.06054
H          0.62027       -0.99874        0.08136
H          0.60741        0.52837       -0.80876
H          0.60735        0.52477        0.97832
H          2.71683       -2.07741        0.08013
H          5.13369        2.23621        0.07318
H          3.10744        3.45807        0.09909
H          1.81128        2.65848        0.99738
H          1.79592        2.67066       -0.78864
H          9.31030       -4.19945        0.05870
H          9.17802       -0.14221        0.05873

