%nprocs=8 
%mem=16GB 
%chk=/home/mateus/github/db_singletoxygen/chk/molecule_21.chk 
#opt freq blyp/6-31g(d,p) 

molecule_21 O=c1ccc2cc3ccsc3cc2o1	


0 1
O          0.98832       -0.03860       -0.09853
C          2.21768        0.00076       -0.05943
C          3.03442       -1.21581       -0.19415
C          4.37769       -1.19944       -0.18224
C          5.09071        0.07549       -0.06826
C          6.49479        0.23702       -0.15606
C          7.05638        1.55790       -0.24936
C          8.38912        2.05736       -0.52155
C          8.44503        3.43497       -0.60386
S          6.95477        4.16444       -0.26025
C          6.19193        2.64196       -0.07162
C          4.83626        2.48101        0.19814
C          4.30815        1.20838        0.10234
O          2.90345        1.17472        0.13747
H          2.45856       -2.12724       -0.30197
H          4.93449       -2.12367       -0.28744
H          7.15155       -0.63107       -0.21501
H          9.26668        1.44830       -0.70236
H          9.28110        4.07759       -0.83886
H          4.19545        3.33544        0.37578

