%nprocs=8 
%mem=16GB 
%chk=/home/mateus/github/db_singletoxygen/chk/moleculeA_13.chk 
#opt freq blyp/6-31g(d,p) 

moleculeA_13 Cc1oc2c(C)cc3ccc(=O)oc3c2c1C	


0 1
C          1.12099       -0.04259       -0.02863
C          2.59665       -0.17405       -0.02841
O          3.32632        0.97044       -0.02838
C          4.64177        0.61125       -0.02760
C          5.71670        1.50922       -0.02627
C          5.57942        2.99705       -0.02524
C          6.99844        0.94093       -0.02510
C          7.18711       -0.43834       -0.02581
C          8.53938       -0.96630       -0.02413
C          8.73676       -2.28464       -0.02464
C          7.61887       -3.24001       -0.02664
O          7.84071       -4.44821       -0.02689
O          6.32933       -2.71126       -0.02784
C          6.08516       -1.30646       -0.02736
C          4.77086       -0.77863       -0.02781
C          3.42772       -1.28168       -0.02779
C          2.94997       -2.68297       -0.02677
H          0.79132        1.00037       -0.02990
H          0.70134       -0.53179        0.85680
H          0.70144       -0.53390       -0.91293
H          4.53146        3.30500       -0.02581
H          6.06410        3.41161       -0.91520
H          6.06264        3.41014        0.86621
H          7.86405        1.60169       -0.02324
H          9.37387       -0.27311       -0.02205
H          9.73657       -2.70202       -0.02319
H          3.77266       -3.39854       -0.02551
H          2.33213       -2.86682       -0.91281
H          2.33110       -2.86519        0.85893

