%nprocs=8 
%mem=16GB 
%chk=/home/mateus/github/db_singletoxygen/chk/molecule_10.chk 
#opt freq blyp/6-31g(d,p) 

molecule_10 Cc1cc(=O)oc2c3c(coc3c(cc12)C)C	


0 1
C          1.05127       -0.03382       -0.05322
C          2.54957       -0.04224       -0.05302
C          3.25873       -1.17808       -0.05310
C          4.72663       -1.20588       -0.05226
O          5.33409       -2.27362       -0.05278
O          5.37294        0.01610       -0.05044
C          4.66316        1.24127       -0.05074
C          5.36906        2.46040       -0.04949
C          6.74519        2.84188       -0.04493
C          6.74711        4.22224       -0.04880
O          5.48028        4.71387       -0.05232
C          4.63369        3.64470       -0.05197
C          3.23580        3.69596       -0.05355
C          2.58419        2.45276       -0.05333
C          3.26640        1.23456       -0.05251
C          2.37892        4.92310       -0.05475
C          7.92813        1.94857       -0.03647
H          0.63526       -1.04415       -0.05321
H          0.67178        0.47968       -0.94428
H          0.67169        0.47967        0.83783
H          2.77966       -2.14955       -0.05359
H          7.53601        4.96284       -0.04855
H          1.49649        2.47032       -0.05394
H          2.96616        5.84194       -0.05471
H          1.73303        4.91556        0.83139
H          1.73428        4.91473       -0.94176
H          7.64435        0.89351       -0.03449
H          8.53410        2.12526        0.85700
H          8.54376        2.11995       -0.92425

