%nprocs=8 
%mem=16GB 
%chk=/home/mateus/github/db_singletoxygen/chk/molecule_1.chk 
#opt freq b3lyp/6-31g(d) 

molecule_1 CCCC	

0 1
C          1.04238       -0.01832       -0.07837
C          2.56227       -0.03099       -0.07335
C          3.10542       -1.35782        0.45284
C          4.62531       -1.37048        0.45786
H          0.67222        0.93917       -0.45809
H          0.64645       -0.15970        0.93224
H          0.64645       -0.81391       -0.71740
H          2.92782        0.79440        0.54852
H          2.92782        0.14386       -1.09188
H          2.73987       -2.18320       -0.16903
H          2.73987       -1.53266        1.47137
H          5.02124       -1.22910       -0.55274
H          4.99547       -2.32797        0.83758
H          5.02124       -0.57489        1.09689

