%nprocs=8 
%mem=16GB 
%chk=/home/mateus/github/db_singletoxygen/chk/moleculeA_3.chk 
#opt freq blyp/6-31g(d,p) 

moleculeA_3 Cc1cc(=O)oc2c1ccc1c2c(co1)C	


0 1
C          0.98749       -0.15121        0.04505
C          2.48485       -0.15504        0.04524
C          3.19201       -1.29352        0.04516
C          4.65980       -1.32727        0.04600
O          5.26577       -2.39485        0.04549
O          5.30557       -0.10590        0.04783
C          4.59923        1.12055        0.04753
C          3.19846        1.12715        0.04574
C          2.52186        2.35638        0.04492
C          3.19988        3.57966        0.04468
C          4.58857        3.51778        0.04629
C          5.31472        2.33300        0.04878
C          6.68933        2.71461        0.05334
C          6.69339        4.09552        0.04948
O          5.42801        4.58769        0.04595
C          7.87011        1.82133        0.06183
H          0.57441       -1.16342        0.04507
H          0.60766        0.36049       -0.84632
H          0.60758        0.36047        0.93641
H          2.71349       -2.26587        0.04469
H          1.43542        2.39158        0.04432
H          2.66555        4.52194        0.04379
H          7.48061        4.83724        0.04974
H          7.58410        0.76701        0.06380
H          8.47491        1.99874        0.95566
H          8.48460        1.99341       -0.82632

