%nprocs=1 
%mem=2GB 
#hf/6-31g(d,p) 

molecule_~/github/db_singletoxygen 0

0 1
C          0.94594       -0.02316        0.07218
C          2.43810       -0.03098        0.06223
C          3.16019       -0.72979       -0.82677
C          4.65298       -0.74643       -0.84794
H          0.58242        0.61492        0.88392
H          0.55265       -1.03104        0.23574
H          0.55265        0.37380       -0.86856
H          2.93997        0.56525        0.82074
H          2.65446       -1.32514       -1.58416
H          5.08135       -0.12392       -0.05600
H          5.01681       -0.37314       -1.80984
H          5.01681       -1.76928       -0.71239

