%nprocs=8 
%mem=16GB 
%chk=/home/mateus/github/db_singletoxygen/chk/molecule_4.chk 
#opt freq blyp/6-31g(d,p) 

molecule_4 Cc1cc(=O)oc2c1ccc1c2cc(o1)C	


0 1
C          0.92944        0.06970       -0.00931
C          2.44033        0.06501       -0.00475
C          3.14314        1.19867       -0.00772
C          4.61518        1.23807       -0.00447
O          5.18920        2.31679        0.00661
O          5.29954        0.01732       -0.02709
C          4.63233       -1.24824       -0.07806
C          3.18045       -1.21076       -0.00975
C          2.42938       -2.39149       -0.01042
C          3.06252       -3.60646        0.00217
C          4.43437       -3.56853       -0.03570
C          5.35757       -2.52037       -0.16168
C          6.89057       -3.15068       -0.48282
C          6.29708       -4.23317        0.19064
O          5.13272       -4.69841        0.04623
C          8.20435       -4.35979       -0.19468
H          0.51547        1.08303       -0.00985
H          0.53502       -0.43669        0.88011
H          0.53670       -0.43599       -0.90055
H          2.64878        2.16613       -0.01224
H          1.34439       -2.41648       -0.01872
H          2.53628       -4.55668        0.00104
H          6.63370       -4.01025        1.18670
H          9.20132       -3.94383       -0.05661
H          8.12368       -5.12900       -0.98613
H          8.10410       -5.01789        0.76494

