%nprocs=8 
%mem=16GB 
%chk=/home/mateus/github/db_singletoxygen/chk/molecule_39.chk 
#opt freq blyp/6-31g(d,p) 

molecule_39 c1cc(cc2nc3c(ccc(c3)N)cc12)N	


0 1
C         -2.41902       -1.39208        0.00013
C         -3.61660       -0.68529        0.00187
C         -3.61195        0.70781        0.01541
C         -2.38249        1.37894        0.00083
C         -1.16578        0.70246       -0.00016
N         -0.00355        1.38574       -0.00159
C          1.16233        0.70779       -0.00084
C          1.21007       -0.69993       -0.00002
C          2.43540       -1.37647        0.00070
C          3.62690       -0.65873        0.00036
C          3.60726        0.73412        0.00018
C          2.37182        1.39365       -0.00047
N          4.79172        1.44650       -0.00105
C          0.00655       -1.39913        0.00003
C         -1.20085       -0.70570        0.00033
N         -4.80662        1.40387       -0.03955
H         -2.44226       -2.47917       -0.00320
H         -4.55353       -1.23428       -0.00385
H         -2.36203        2.46638       -0.00531
H          2.46894       -2.46354        0.00136
H          4.56979       -1.19780        0.00024
H          2.34111        2.48062       -0.00070
H          5.68187        0.96861        0.00043
H          4.78410        2.45723        0.00030
H          0.00876       -2.48682        0.00041
H         -5.68593        0.91095        0.03929
H         -4.81558        2.41196        0.03857

