%nprocs=8 
%mem=16GB 
%chk=/home/mateus/github/db_singletoxygen/chk/molecule_46.chk 
#opt freq blyp/6-31g(d,p) 

molecule_46 CN(C)c1ccc2nc3-c(c(c(=O)cc3)I)sc2c1	


0 1
C          0.94643       -0.01339       -0.12666
N          2.38894       -0.10774       -0.14567
C          3.13924        0.22637       -1.35068
C          3.05163       -0.30911        1.04663
C          2.69544       -1.28391        1.98429
C          3.43738       -1.48257        3.17056
C          4.54751       -0.68239        3.45984
N          5.29225       -0.88054        4.64317
C          6.32323       -0.12783        4.91472
C          7.04557       -0.41665        6.18525
C          8.11336        0.29046        6.56677
C          8.65540        1.39890        5.76952
O          9.64228        2.01228        6.17805
C          7.97849        1.72306        4.50366
I          8.83444        3.34621        3.40812
C          6.90224        1.01670        4.11291
S          6.16043        1.44341        2.64112
C          4.86206        0.29876        2.52903
C          4.13717        0.47666        1.35936
H          0.54975        0.20345       -1.12193
H          0.61244        0.78453        0.54761
H          0.51227       -0.96046        0.20248
H          2.47854        0.37513       -2.20852
H          3.81343       -0.60327       -1.59287
H          3.74229        1.13785       -1.25880
H          1.85541       -1.94009        1.77614
H          3.13732       -2.27688        3.85075
H          6.66937       -1.23084        6.79736
H          8.64350        0.08801        7.48836
H          4.42723        1.28802        0.69747

