%nprocs=8 
%mem=16GB 
%chk=/home/mateus/github/db_singletoxygen/chk/molecule_12.chk 
#opt freq blyp/6-31g(d,p) 

molecule_12 Cc1cc2c(c3c1occ3C)oc(=O)cc2C	


0 1
C          0.93129        0.04271       -0.05766
C          2.42838        0.03019       -0.05797
C          3.08197       -1.21096       -0.05699
C          4.47194       -1.34336       -0.05767
C          5.26367       -0.19254       -0.05820
C          4.66034        1.07974       -0.05781
C          3.26839        1.15012       -0.05871
O          2.87343        2.45619       -0.06014
C          4.00068        3.21678       -0.05889
C          5.13168        2.42708       -0.05550
C          6.54695        2.86593       -0.04945
O          6.67514       -0.30361       -0.05934
C          7.30484       -1.53623       -0.06077
O          8.52829       -1.65144       -0.06282
C          6.44386       -2.72681       -0.05918
C          5.10676       -2.66218       -0.05746
C          4.24204       -3.88721       -0.05516
H          0.53890       -0.98340       -0.05649
H          0.55065        0.53216       -0.95677
H          0.55098        0.53402        0.84059
H          2.45478       -2.09910       -0.05577
H          3.84367        4.28737       -0.05973
H          6.62981        3.95663       -0.04714
H          7.06582        2.48565       -0.93558
H          7.05829        2.48297        0.84001
H          6.96648       -3.67573       -0.05928
H          4.83149       -4.80712       -0.05482
H          3.60185       -3.90643       -0.94512
H          3.60406       -3.90443        0.83643

