%nprocs=8 
%mem=16GB 
%chk=/home/mateus/github/db_singletoxygen/chk/moleculeA_8.chk 
#opt freq blyp/6-31g(d,p) 

moleculeA_8 Cc1cc(=O)oc2c1ccc1sc(C)c(C)c21	


0 1
C          0.94392        0.10432       -0.08041
C          2.44444        0.10356       -0.07933
C          3.15808        1.23566       -0.07848
C          4.62618        1.25557       -0.06994
O          5.23221        2.32562       -0.06646
O          5.27240        0.02692       -0.06396
C          4.56237       -1.21083       -0.06806
C          3.15420       -1.17900       -0.07698
C          2.44485       -2.37824       -0.08338
C          3.09790       -3.59645       -0.07976
C          4.49409       -3.60876       -0.06909
S          5.41527       -5.03405       -0.06223
C          6.87563       -4.17434       -0.05055
C          8.11552       -4.99825       -0.04059
C          6.69385       -2.79529       -0.05202
C          7.80804       -1.79074       -0.04299
C          5.27315       -2.44949       -0.06298
H          0.53111        1.11617       -0.07976
H          0.56049       -0.40740        0.81034
H          0.56054       -0.40675       -0.97140
H          2.67954        2.20857       -0.08164
H          1.36015       -2.40966       -0.09147
H          2.53965       -4.52745       -0.08448
H          7.88018       -6.07098       -0.04245
H          8.69997       -4.79762        0.86017
H          8.71431       -4.79762       -0.93187
H          8.78930       -2.27717       -0.03516
H          7.74932       -1.15386        0.84590
H          7.76355       -1.15366       -0.93254

