%nprocs = 8 
%mem = 16GB 
%chk=molecule_0.chk 
# opt freq b3lyp/6-31g(d,p) 

input 0

0 1
C          1.06849       -0.07264       -0.00517
C          2.56065       -0.06205        0.00175
C          3.28274        0.88435        0.62061
C          4.77552        0.90688        0.63535
H          0.70497       -0.93679       -0.57024
H          0.67520        0.83002       -0.48244
H          0.67520       -0.14793        1.01312
H          3.06252       -0.86953       -0.52626
H          2.77701        1.69064        1.14785
H          5.20390        0.06382        0.08406
H          5.13935        0.86080        1.66612
H          5.13935        1.83269        0.17983

