%nprocs=8 
%mem=16GB 
%chk=/home/mateus/github/db_singletoxygen/chk/molecule_6.chk 
#opt freq blyp/6-31g(d,p) 

molecule_6 Cc1coc2c(C)cc3ccc(=O)oc3c12	


0 1
C          0.98806       -0.06685       -0.09675
C          2.46842       -0.07149       -0.09719
C          3.26814        1.05490       -0.09718
O          4.57707        0.72130       -0.09676
C          4.64506       -0.63641       -0.09643
C          5.83797       -1.36591       -0.09502
C          7.20011       -0.75315       -0.09335
C          5.70601       -2.75912       -0.09448
C          4.45618       -3.37392       -0.09583
C          4.38898       -4.82323       -0.09481
C          3.20265       -5.43039       -0.09595
C          1.93990       -4.67593       -0.09801
O          0.86695       -5.27404       -0.09886
O          2.02606       -3.28377       -0.09855
C          3.28014       -2.60638       -0.09740
C          3.36576       -1.19329       -0.09727
H          0.60280        0.96031       -0.09690
H          0.60205       -0.56744        0.79529
H          0.60155       -0.56804       -0.98819
H          3.06258        2.11732       -0.09717
H          7.15122        0.33852       -0.09347
H          7.74907       -1.07494       -0.98392
H          7.74668       -1.07478        0.79876
H          6.60783       -3.36905       -0.09262
H          5.31305       -5.39175       -0.09271
H          3.12786       -6.51124       -0.09499

