%nprocs=8 
%mem=16GB 
%chk=/home/mateus/github/db_singletoxygen/chk/molecule_20.chk 
#opt freq blyp/6-31g(d,p) 

molecule_20 O=c1ccc2cc3ccsc3cc2[se]1	


0 1
O          0.90348        0.01039        0.02402
C          2.17438        0.01039        0.02402
C          2.86281       -1.18270       -0.09858
C          4.24589       -1.18107       -0.09458
C          4.93704        0.00695        0.02022
C          6.70566       -0.00642        0.01114
C          7.13684        1.58159       -0.16354
C          8.34246        2.14561       -0.45081
C          8.14661        3.45249       -0.48015
S          6.91085        3.71826       -0.22985
C          6.24114        2.61095       -0.02637
C          4.90755        2.43804        0.27291
C          4.25503        1.21040        0.14537
Se         2.86047        1.19944        0.14619
H          2.34634       -2.07119       -0.19272
H          4.76196       -2.07090       -0.17770
H          7.33029       -0.82353        0.09598
H          9.23320        1.65049       -0.61350
H          8.87590        4.15624       -0.67481
H          4.36716        3.25171        0.60601

