%nprocs=8 
%mem=16GB 
%chk=/home/mateus/github/db_singletoxygen/chk/molecule_14.chk 
#opt freq blyp/6-31g(d,p) 

molecule_14 Cc1cc2c3oc(=O)cc(C)c3cc(C)c2s1	


0 1
C          0.83334       -0.11634        0.03807
C          2.31575       -0.11455        0.03783
C          3.25797       -1.12569        0.03805
C          4.61803       -0.62338        0.03800
C          5.89419       -1.25557        0.03859
O          5.98890       -2.67817        0.03763
C          7.21091       -3.33808        0.03683
O          7.30474       -4.56491        0.03599
C          8.41991       -2.50453        0.03934
C          8.38339       -1.16635        0.04358
C          9.63390       -0.33611        0.05380
C          7.07802       -0.49573        0.04031
C          6.99234        0.89793        0.03895
C          5.76730        1.56054        0.03734
C          5.68472        3.05732        0.03624
C          4.60600        0.77209        0.03749
S          3.02448        1.41759        0.03708
H          0.41935       -1.12305        0.03872
H          0.46572        0.41998       -0.84628
H          0.46593        0.42099        0.92190
H          3.00446       -2.18018        0.03863
H          9.35881       -3.04758        0.04002
H         10.53862       -0.95000        0.05780
H          9.66529        0.29838        0.94737
H          9.67700        0.30489       -0.83447
H          7.88763        1.51334        0.03900
H          6.66969        3.52577        0.03595
H          5.14240        3.39268        0.92736
H          5.14251        3.39144       -0.85541

