%nprocs=8 
%mem=16GB 
%chk=/home/mateus/github/db_singletoxygen/chk/moleculeA_10.chk 
#opt freq blyp/6-31g(d,p) 

moleculeA_10 Cc1cc(=O)oc2c3c(coc3c(cc12)C)C	


0 1
C          1.04076       -0.05560        0.07359
C          2.53906       -0.06402        0.07379
C          3.24822       -1.19986        0.07371
C          4.71611       -1.22766        0.07455
O          5.32357       -2.29540        0.07403
O          5.36242       -0.00568        0.07637
C          4.65264        1.21949        0.07607
C          5.35854        2.43862        0.07732
C          6.73468        2.82010        0.08188
C          6.73659        4.20046        0.07801
O          5.46976        4.69209        0.07449
C          4.62318        3.62292        0.07484
C          3.22529        3.67418        0.07326
C          2.57368        2.43098        0.07348
C          3.25589        1.21278        0.07430
C          2.36841        4.90133        0.07206
C          7.91761        1.92679        0.09034
H          0.62475       -1.06593        0.07360
H          0.66126        0.45790       -0.81747
H          0.66117        0.45789        0.96464
H          2.76915       -2.17133        0.07322
H          7.52550        4.94106        0.07826
H          1.48598        2.44854        0.07287
H          2.95565        5.82016        0.07210
H          1.72252        4.89378        0.95820
H          1.72376        4.89295       -0.81495
H          7.63384        0.87173        0.09232
H          8.52358        2.10348        0.98381
H          8.53324        2.09817       -0.79744

