%nprocs=8 
%mem=16GB 
%chk=/home/mateus/github/db_singletoxygen/chk/molecule_18.chk 
#opt freq blyp/6-31g(d,p) 

molecule_18 O=c1ccc2cc3cc[se]c3cc2s1	


0 1
O          1.02693       -0.09594       -0.00840
C          2.29783       -0.09594       -0.00840
C          2.98625       -1.28903       -0.13099
C          4.36934       -1.28740       -0.12700
C          5.06048       -0.09938       -0.01220
C          6.82911       -0.11275       -0.02128
C          7.26029        1.47526       -0.19595
C          8.46591        2.03928       -0.48323
C          8.27006        3.34616       -0.51256
Se         7.03429        3.61193       -0.26226
C          6.36458        2.50462       -0.05879
C          5.03100        2.33171        0.24049
C          4.37848        1.10407        0.11295
S          2.98392        1.09311        0.11377
H          2.46979       -2.17752       -0.22513
H          4.88540       -2.17723       -0.21012
H          7.45374       -0.92986        0.06356
H          9.35665        1.54416       -0.64592
H          8.99934        4.04991       -0.70723
H          4.49061        3.14538        0.57359

