%nprocs=8 
%mem=16GB 
%chk=/home/mateus/github/db_singletoxygen/chk/moleculeA_2.chk 
#opt freq blyp/6-31g(d,p) 

moleculeA_2 Cc1cc2c(c3c(cc2)occ3C)oc1=O	


0 1
C          0.93422       -0.01122       -0.05426
C          2.43037       -0.05926       -0.05437
C          3.07523       -1.22957       -0.05329
C          4.52156       -1.28709       -0.05355
C          5.27416       -0.10297       -0.05427
C          6.68752       -0.17808       -0.05358
C          7.25178       -1.45379       -0.05312
C          6.53045       -2.64417       -0.05260
C          5.14344       -2.53596       -0.05250
O          8.60655       -1.38694       -0.05282
C          8.93501       -0.07564       -0.05248
C          7.80585        0.72182       -0.05257
C          7.80419        2.20238       -0.05132
O          4.57843        1.14123       -0.05517
C          3.18052        1.22147       -0.05534
O          2.59489        2.30177       -0.05598
H          0.50303       -1.02086       -0.05364
H          0.55992        0.49806       -0.94697
H          0.56013        0.49914        0.83791
H          2.53018       -2.16813       -0.05196
H          7.02682       -3.60623       -0.05171
H          4.54631       -3.44493       -0.05134
H          9.99662        0.13296       -0.05190
H          8.82950        2.59223       -0.05091
H          7.30129        2.58606        0.84052
H          7.30127        2.58758       -0.94245

