%nprocs=8 
%mem=16GB 
%chk=molecule_2.chk 
#opt freq b3lyp/6-31g(d,p) 

input 2

0 1
C          1.02672       -0.09892        0.00259
C          2.36251       -0.09892        0.00259
H          0.46686       -1.02746        0.05418
H          0.46686        0.82962       -0.04900
H          2.92238       -1.02746        0.05418
H          2.92238        0.82962       -0.04900

